/*---------------------------------------------------------------------------*\
| =========                 |                                                 |
| \\      /  F ield         | OpenFOAM: The Open Source CFD Toolbox           |
|  \\    /   O peration     | Version:  2012                                  |
|   \\  /    A nd           | Website:  www.openfoam.com                      |
|    \\/     M anipulation  |                                                 |
\*---------------------------------------------------------------------------*/
Build  : 79e353b8-20201222 OPENFOAM=2012
Arch   : "LSB;label=32;scalar=64"
Exec   : blockMesh
Date   : Aug 26 2021
Time   : 13:52:53
Host   : ninja
PID    : 2146692
I/O    : uncollated
Case   : /home/dekay/HiWi/naca0012_shock_buffet/run/modMesh
nProcs : 1
trapFpe: Floating point exception trapping enabled (FOAM_SIGFPE).
fileModificationChecking : Monitoring run-time modified files using timeStampMaster (fileModificationSkew 5, maxFileModificationPolls 20)
allowSystemOperations : Allowing user-supplied system call operations

// * * * * * * * * * * * * * * * * * * * * * * * * * * * * * * * * * * * * * //
Create time

Creating block mesh from "system/blockMeshDict"
Creating block edges
No non-planar block faces defined
Creating topology blocks
Creating topology patches

Creating block mesh topology

Check topology

	Basic statistics
		Number of internal faces : 28
		Number of boundary faces : 58
		Number of defined boundary faces : 58
		Number of undefined boundary faces : 0
	Checking patch -> block consistency

Creating block offsets
Creating merge list (topological search)..

--> FOAM FATAL ERROR: (openfoam-2012)
Sub-division mismatch between face 2 of block 1(241 2) and face 3 of block 2(101 2)

    From void Foam::blockMesh::calcTopologicalMerge()
    in file blockMesh/blockMeshMergeTopological.C at line 414.

FOAM exiting

